#!/sbin/sh
##########################################################################################
#
# Magisk Module Installer Script
#
##########################################################################################

##########################################################################################
#
# Instructions:
#
# 1. Place your files into system folder (delete the placeholder file)
# 2. Fill in your module's info in module.prop
# 3. Configure the settings in this file. common/post-fs-data.sh, system/service.sh
#    and config.sh will be automatically sourced by the installation script
#
##########################################################################################

##########################################################################################
# Config Flags
##########################################################################################

# Set to true if you need to enable Magic Mount
# Most modules would want it to be set to true
AUTOMOUNT=true

# Set to true if you need to load system.prop
PROPFILE=false

# Set to true if you need post-fs-data script
POSTFSDATA=false

# Set to true if you need late_start service script
LATESTARTSERVICE=true

##########################################################################################
# Installation Message
##########################################################################################

print_modname() {
  ui_print "*******************************"
  ui_print "  Miru Universal Bypass        "
  ui_print "*******************************"
}

##########################################################################################
# Replace list
##########################################################################################

# List all directories you want to directly replace in the system
# Check the documentations for more info about how Magic Mount works, and why you need this

# Construct your own list here, it will override the example above
# !DO NOT! remove this if you don't need to replace anything, leave it empty as it is now
REPLACE="
"

##########################################################################################
# Permissions
##########################################################################################

set_permissions() {
  set_perm_recursive $MODPATH 0 0 0755 0644
}

##########################################################################################
# Info Print
##########################################################################################

# General info print
ui_print "- Installing Miru Universal Bypass"

##########################################################################################
# Main
##########################################################################################

# Load utility functions
if [ -f /data/adb/magisk/util_functions.sh ]; then
  . /data/adb/magisk/util_functions.sh
else
  ui_print "! Unable to extract zip file!"
  exit 1
fi

install_module
exit 0
